RTS_Data/FormattedData/PSSE/RTS.raw
0, 100, 33, 0, 0, 60  / 31-Jul-2017 11:29:29 - MATPOWER 6.1-dev


   101, 'BUS 101     ',       138, 2,    1,   11, 1,     1.04777,    -7.74152, 1.05, 0.95, 1.05, 0.95
   102, 'BUS 102     ',       138, 2,    1,   12, 1,     1.04783,    -7.81784, 1.05, 0.95, 1.05, 0.95
   103, 'BUS 103     ',       138, 1,    1,   11, 1,     1.01085,     -7.2109, 1.05, 0.95, 1.05, 0.95
   104, 'BUS 104     ',       138, 1,    1,   11, 1,     1.01765,   -10.56614, 1.05, 0.95, 1.05, 0.95
   105, 'BUS 105     ',       138, 1,    1,   11, 1,     1.03568,   -10.70887, 1.05, 0.95, 1.05, 0.95
   106, 'BUS 106     ',       138, 1,    1,   12, 1,     1.03242,   -13.27944, 1.05, 0.95, 1.05, 0.95
   107, 'BUS 107     ',       138, 2,    1,   12, 1,     1.03745,   -11.27673, 1.05, 0.95, 1.05, 0.95
   108, 'BUS 108     ',       138, 1,    1,   12, 1,     1.01024,   -13.74967, 1.05, 0.95, 1.05, 0.95
   109, 'BUS 109     ',       138, 1,    1,   13, 1,      1.0261,    -8.81524, 1.05, 0.95, 1.05, 0.95
   110, 'BUS 110     ',       138, 1,    1,   13, 1,        1.05,   -10.62063, 1.05, 0.95, 1.05, 0.95
   111, 'BUS 111     ',       230, 1,    1,   13, 1,     1.02764,    -3.91674, 1.05, 0.95, 1.05, 0.95
   112, 'BUS 112     ',       230, 1,    1,   13, 1,     1.02024,    -2.42424, 1.05, 0.95, 1.05, 0.95
   113, 'BUS 113     ',       230, 3,    1,   14, 1,     1.03943,           0, 1.05, 0.95, 1.05, 0.95
   114, 'BUS 114     ',       230, 2,    1,   16, 1,     1.04401,    -1.73056, 1.05, 0.95, 1.05, 0.95
   115, 'BUS 115     ',       230, 2,    1,   16, 1,     1.04335,      7.9597, 1.05, 0.95, 1.05, 0.95
   116, 'BUS 116     ',       230, 2,    1,   16, 1,     1.04565,     7.56929, 1.05, 0.95, 1.05, 0.95
   117, 'BUS 117     ',       230, 1,    1,   17, 1,     1.04783,    11.43417, 1.05, 0.95, 1.05, 0.95
   118, 'BUS 118     ',       230, 2,    1,   17, 1,        1.05,    12.52457, 1.05, 0.95, 1.05, 0.95
   119, 'BUS 119     ',       230, 1,    1,   15, 1,     1.03962,     6.65777, 1.05, 0.95, 1.05, 0.95
   120, 'BUS 120     ',       230, 1,    1,   15, 1,     1.04399,      7.7406, 1.05, 0.95, 1.05, 0.95
   121, 'BUS 121     ',       230, 2,    1,   17, 1,        1.05,    13.08653, 1.05, 0.95, 1.05, 0.95
   122, 'BUS 122     ',       230, 2,    1,   17, 1,        1.05,    18.94978, 1.05, 0.95, 1.05, 0.95
   123, 'BUS 123     ',       230, 2,    1,   15, 1,        1.05,     9.05617, 1.05, 0.95, 1.05, 0.95
   124, 'BUS 124     ',       230, 1,    1,   16, 1,     1.01155,     2.38339, 1.05, 0.95, 1.05, 0.95
   201, 'BUS 201     ',       138, 2,    2,   21, 1,     1.04841,   -10.68973, 1.05, 0.95, 1.05, 0.95
   202, 'BUS 202     ',       138, 2,    2,   22, 1,     1.04844,   -10.75906, 1.05, 0.95, 1.05, 0.95
   203, 'BUS 203     ',       138, 1,    2,   21, 1,     1.01886,   -10.47453, 1.05, 0.95, 1.05, 0.95
   204, 'BUS 204     ',       138, 1,    2,   21, 1,      1.0189,   -13.48479, 1.05, 0.95, 1.05, 0.95
   205, 'BUS 205     ',       138, 1,    2,   21, 1,     1.03603,   -13.61187, 1.05, 0.95, 1.05, 0.95
   206, 'BUS 206     ',       138, 1,    2,   22, 1,     1.03259,   -16.15672, 1.05, 0.95, 1.05, 0.95
   207, 'BUS 207     ',       138, 2,    2,   22, 1,     1.03973,   -13.46606, 1.05, 0.95, 1.05, 0.95
   208, 'BUS 208     ',       138, 1,    2,   22, 1,     1.01203,   -16.22359, 1.05, 0.95, 1.05, 0.95
   209, 'BUS 209     ',       138, 1,    2,   23, 1,     1.02781,   -11.72409, 1.05, 0.95, 1.05, 0.95
   210, 'BUS 210     ',       138, 1,    2,   23, 1,        1.05,   -13.47986, 1.05, 0.95, 1.05, 0.95
   211, 'BUS 211     ',       230, 1,    2,   23, 1,     1.02735,    -6.93336, 1.05, 0.95, 1.05, 0.95
   212, 'BUS 212     ',       230, 1,    2,   23, 1,     1.01921,    -5.25334, 1.05, 0.95, 1.05, 0.95
   213, 'BUS 213     ',       230, 2,    2,   24, 1,     1.03752,     -3.2151, 1.05, 0.95, 1.05, 0.95
   214, 'BUS 214     ',       230, 2,    2,   26, 1,     1.04335,    -4.68519, 1.05, 0.95, 1.05, 0.95
   215, 'BUS 215     ',       230, 2,    2,   26, 1,     1.04327,     4.63351, 1.05, 0.95, 1.05, 0.95
   216, 'BUS 216     ',       230, 2,    2,   26, 1,     1.04556,     4.70009, 1.05, 0.95, 1.05, 0.95
   217, 'BUS 217     ',       230, 1,    2,   27, 1,     1.04847,     8.81839, 1.05, 0.95, 1.05, 0.95
   218, 'BUS 218     ',       230, 2,    2,   27, 1,        1.05,     9.99473, 1.05, 0.95, 1.05, 0.95
   219, 'BUS 219     ',       230, 1,    2,   25, 1,     1.03946,     4.21233, 1.05, 0.95, 1.05, 0.95
   220, 'BUS 220     ',       230, 1,    2,   25, 1,      1.0438,     5.66449, 1.05, 0.95, 1.05, 0.95
   221, 'BUS 221     ',       230, 2,    2,   27, 1,        1.05,    10.63209, 1.05, 0.95, 1.05, 0.95
   222, 'BUS 222     ',       230, 2,    2,   27, 1,        1.05,    16.43203, 1.05, 0.95, 1.05, 0.95
   223, 'BUS 223     ',       230, 2,    2,   25, 1,        1.05,     7.18151, 1.05, 0.95, 1.05, 0.95
   224, 'BUS 224     ',       230, 1,    2,   26, 1,     1.01456,    -0.96005, 1.05, 0.95, 1.05, 0.95
   301, 'BUS 301     ',       138, 2,    3,   31, 1,      1.0486,    -9.34821, 1.05, 0.95, 1.05, 0.95
   302, 'BUS 302     ',       138, 2,    3,   32, 1,     1.04864,      -9.431, 1.05, 0.95, 1.05, 0.95
   303, 'BUS 303     ',       138, 1,    3,   31, 1,     1.01045,    -8.57689, 1.05, 0.95, 1.05, 0.95
   304, 'BUS 304     ',       138, 1,    3,   31, 1,     1.01785,   -12.18784, 1.05, 0.95, 1.05, 0.95
   305, 'BUS 305     ',       138, 1,    3,   31, 1,     1.03609,   -12.35005, 1.05, 0.95, 1.05, 0.95
   306, 'BUS 306     ',       138, 1,    3,   32, 1,      1.0326,   -14.94205, 1.05, 0.95, 1.05, 0.95
   307, 'BUS 307     ',       138, 2,    3,   32, 1,     1.03804,   -12.54795, 1.05, 0.95, 1.05, 0.95
   308, 'BUS 308     ',       138, 1,    3,   32, 1,     1.01056,   -15.18287, 1.05, 0.95, 1.05, 0.95
   309, 'BUS 309     ',       138, 1,    3,   33, 1,     1.02579,   -10.44617, 1.05, 0.95, 1.05, 0.95
   310, 'BUS 310     ',       138, 1,    3,   33, 1,        1.05,   -12.30117, 1.05, 0.95, 1.05, 0.95
   311, 'BUS 311     ',       230, 1,    3,   33, 1,      1.0283,    -5.74069, 1.05, 0.95, 1.05, 0.95
   312, 'BUS 312     ',       230, 1,    3,   33, 1,       1.019,    -4.14604, 1.05, 0.95, 1.05, 0.95
   313, 'BUS 313     ',       230, 2,    3,   34, 1,     1.03802,    -2.41513, 1.05, 0.95, 1.05, 0.95
   314, 'BUS 314     ',       230, 2,    3,   36, 1,     1.04631,    -3.20793, 1.05, 0.95, 1.05, 0.95
   315, 'BUS 315     ',       230, 2,    3,   36, 1,       1.043,     7.05088, 1.05, 0.95, 1.05, 0.95
   316, 'BUS 316     ',       230, 2,    3,   36, 1,     1.04558,     6.59875, 1.05, 0.95, 1.05, 0.95
   317, 'BUS 317     ',       230, 1,    3,   37, 1,     1.04785,    10.34418, 1.05, 0.95, 1.05, 0.95
   318, 'BUS 318     ',       230, 2,    3,   37, 1,        1.05,    11.34262, 1.05, 0.95, 1.05, 0.95
   319, 'BUS 319     ',       230, 1,    3,   35, 1,     1.03953,     5.91539, 1.05, 0.95, 1.05, 0.95
   320, 'BUS 320     ',       230, 1,    3,   35, 1,     1.04389,     7.19709, 1.05, 0.95, 1.05, 0.95
   321, 'BUS 321     ',       230, 2,    3,   37, 1,        1.05,    12.34122, 1.05, 0.95, 1.05, 0.95
   322, 'BUS 322     ',       230, 2,    3,   37, 1,        1.05,    18.06914, 1.05, 0.95, 1.05, 0.95
   323, 'BUS 323     ',       230, 2,    3,   35, 1,        1.05,     8.62112, 1.05, 0.95, 1.05, 0.95
   324, 'BUS 324     ',       230, 1,    3,   36, 1,     1.01046,     1.30606, 1.05, 0.95, 1.05, 0.95
   325, 'BUS 325     ',       230, 1,    3,   35, 1,     1.04986,     8.99332, 1.05, 0.95, 1.05, 0.95
0 / END OF BUS DATA, BEGIN LOAD DATA
   101,  1, 1,    1,   11,       108,        22, 0, 0, 0, 0, 1, 1, 0
   102,  1, 1,    1,   12,        97,        20, 0, 0, 0, 0, 1, 1, 0
   103,  1, 1,    1,   11,       180,        37, 0, 0, 0, 0, 1, 1, 0
   104,  1, 1,    1,   11,        74,        15, 0, 0, 0, 0, 1, 1, 0
   105,  1, 1,    1,   11,        71,        14, 0, 0, 0, 0, 1, 1, 0
   106,  1, 1,    1,   12,       136,        28, 0, 0, 0, 0, 1, 1, 0
   107,  1, 1,    1,   12,       125,        25, 0, 0, 0, 0, 1, 1, 0
   108,  1, 1,    1,   12,       171,        35, 0, 0, 0, 0, 1, 1, 0
   109,  1, 1,    1,   13,       175,        36, 0, 0, 0, 0, 1, 1, 0
   110,  1, 1,    1,   13,       195,        40, 0, 0, 0, 0, 1, 1, 0
   113,  1, 1,    1,   14,       265,        54, 0, 0, 0, 0, 1, 1, 0
   114,  1, 1,    1,   16,       194,        39, 0, 0, 0, 0, 1, 1, 0
   115,  1, 1,    1,   16,       317,        64, 0, 0, 0, 0, 1, 1, 0
   116,  1, 1,    1,   16,       100,        20, 0, 0, 0, 0, 1, 1, 0
   118,  1, 1,    1,   17,       333,        68, 0, 0, 0, 0, 1, 1, 0
   119,  1, 1,    1,   15,       181,        37, 0, 0, 0, 0, 1, 1, 0
   120,  1, 1,    1,   15,       128,        26, 0, 0, 0, 0, 1, 1, 0
   201,  1, 1,    2,   21,       108,        22, 0, 0, 0, 0, 1, 1, 0
   202,  1, 1,    2,   22,        97,        20, 0, 0, 0, 0, 1, 1, 0
   203,  1, 1,    2,   21,       180,        37, 0, 0, 0, 0, 1, 1, 0
   204,  1, 1,    2,   21,        74,        15, 0, 0, 0, 0, 1, 1, 0
   205,  1, 1,    2,   21,        71,        14, 0, 0, 0, 0, 1, 1, 0
   206,  1, 1,    2,   22,       136,        28, 0, 0, 0, 0, 1, 1, 0
   207,  1, 1,    2,   22,       125,        25, 0, 0, 0, 0, 1, 1, 0
   208,  1, 1,    2,   22,       171,        35, 0, 0, 0, 0, 1, 1, 0
   209,  1, 1,    2,   23,       175,        36, 0, 0, 0, 0, 1, 1, 0
   210,  1, 1,    2,   23,       195,        40, 0, 0, 0, 0, 1, 1, 0
   213,  1, 1,    2,   24,       265,        54, 0, 0, 0, 0, 1, 1, 0
   214,  1, 1,    2,   26,       194,        39, 0, 0, 0, 0, 1, 1, 0
   215,  1, 1,    2,   26,       317,        64, 0, 0, 0, 0, 1, 1, 0
   216,  1, 1,    2,   26,       100,        20, 0, 0, 0, 0, 1, 1, 0
   218,  1, 1,    2,   27,       333,        68, 0, 0, 0, 0, 1, 1, 0
   219,  1, 1,    2,   25,       181,        37, 0, 0, 0, 0, 1, 1, 0
   220,  1, 1,    2,   25,       128,        26, 0, 0, 0, 0, 1, 1, 0
   301,  1, 1,    3,   31,       108,        22, 0, 0, 0, 0, 1, 1, 0
   302,  1, 1,    3,   32,        97,        20, 0, 0, 0, 0, 1, 1, 0
   303,  1, 1,    3,   31,       180,        37, 0, 0, 0, 0, 1, 1, 0
   304,  1, 1,    3,   31,        74,        15, 0, 0, 0, 0, 1, 1, 0
   305,  1, 1,    3,   31,        71,        14, 0, 0, 0, 0, 1, 1, 0
   306,  1, 1,    3,   32,       136,        28, 0, 0, 0, 0, 1, 1, 0
   307,  1, 1,    3,   32,       125,        25, 0, 0, 0, 0, 1, 1, 0
   308,  1, 1,    3,   32,       171,        35, 0, 0, 0, 0, 1, 1, 0
   309,  1, 1,    3,   33,       175,        36, 0, 0, 0, 0, 1, 1, 0
   310,  1, 1,    3,   33,       195,        40, 0, 0, 0, 0, 1, 1, 0
   313,  1, 1,    3,   34,       265,        54, 0, 0, 0, 0, 1, 1, 0
   314,  1, 1,    3,   36,       194,        39, 0, 0, 0, 0, 1, 1, 0
   315,  1, 1,    3,   36,       317,        64, 0, 0, 0, 0, 1, 1, 0
   316,  1, 1,    3,   36,       100,        20, 0, 0, 0, 0, 1, 1, 0
   318,  1, 1,    3,   37,       333,        68, 0, 0, 0, 0, 1, 1, 0
   319,  1, 1,    3,   35,       181,        37, 0, 0, 0, 0, 1, 1, 0
   320,  1, 1,    3,   35,       128,        26, 0, 0, 0, 0, 1, 1, 0
0 / END OF LOAD DATA, BEGIN FIXED SHUNT DATA
   106, 1, 1,       0,    -100
   206, 1, 1,       0,    -100
   306, 1, 1,       0,    -100
0 / END OF FIXED SHUNT DATA, BEGIN GENERATOR DATA
   101,  1,        10,         0,        10,         0,    1.035, 0,     100, 0, 1, 0, 0, 1, 1, 100,        20,         8, 1, 1, 0, 1, 0, 1, 0, 1, 0, 1
   101,  1,        10,         0,        10,         0,    1.035, 0,     100, 0, 1, 0, 0, 1, 1, 100,        20,         8, 1, 1, 0, 1, 0, 1, 0, 1, 0, 1
   101,  1,        76,      14.1,        30,       -25,    1.035, 0,     100, 0, 1, 0, 0, 1, 1, 100,        76,        30, 1, 1, 0, 1, 0, 1, 0, 1, 0, 1
   101,  1,        76,      14.1,        30,       -25,    1.035, 0,     100, 0, 1, 0, 0, 1, 1, 100,        76,        30, 1, 1, 0, 1, 0, 1, 0, 1, 0, 1
   102,  1,        10,         0,        10,         0,    1.035, 0,     100, 0, 1, 0, 0, 1, 1, 100,        20,         8, 1, 1, 0, 1, 0, 1, 0, 1, 0, 1
   102,  1,        10,         0,        10,         0,    1.035, 0,     100, 0, 1, 0, 0, 1, 1, 100,        20,         8, 1, 1, 0, 1, 0, 1, 0, 1, 0, 1
   102,  1,        76,         7,        30,       -25,    1.035, 0,     100, 0, 1, 0, 0, 1, 1, 100,        76,        30, 1, 1, 0, 1, 0, 1, 0, 1, 0, 1
   102,  1,        76,         7,        30,       -25,    1.035, 0,     100, 0, 1, 0, 0, 1, 1, 100,        76,        30, 1, 1, 0, 1, 0, 1, 0, 1, 0, 1
   107,  1,       355,     71.78,       150,       -25,     1.05, 0,     100, 0, 1, 0, 0, 1, 1, 100,       355,       170, 1, 1, 0, 1, 0, 1, 0, 1, 0, 1
   113,  1,        55,        11,        19,       -15,    1.028, 0,     100, 0, 1, 0, 0, 1, 1, 100,        55,        22, 1, 1, 0, 1, 0, 1, 0, 1, 0, 1
   113,  1,        55,        11,        19,       -15,    1.028, 0,     100, 0, 1, 0, 0, 1, 1, 100,        55,        22, 1, 1, 0, 1, 0, 1, 0, 1, 0, 1
   113,  1,        55,        11,        19,       -15,    1.028, 0,     100, 0, 1, 0, 0, 1, 1, 100,        55,        22, 1, 1, 0, 1, 0, 1, 0, 1, 0, 1
   113,  1,        55,        11,        19,       -15,    1.028, 0,     100, 0, 1, 0, 0, 1, 1, 100,        55,        22, 1, 1, 0, 1, 0, 1, 0, 1, 0, 1
   115,  1,        12,         0,         6,         0,    1.014, 0,     100, 0, 1, 0, 0, 1, 1, 100,        12,         5, 1, 1, 0, 1, 0, 1, 0, 1, 0, 1
   115,  1,        12,         0,         6,         0,    1.014, 0,     100, 0, 1, 0, 0, 1, 1, 100,        12,         5, 1, 1, 0, 1, 0, 1, 0, 1, 0, 1
   115,  1,       155,      0.05,        80,       -50,    1.014, 0,     100, 0, 1, 0, 0, 1, 1, 100,       155,        62, 1, 1, 0, 1, 0, 1, 0, 1, 0, 1
   116,  1,       155,     25.22,        80,       -50,    1.017, 0,     100, 0, 1, 0, 0, 1, 1, 100,       155,        62, 1, 1, 0, 1, 0, 1, 0, 1, 0, 1
   118,  1,       350,     71.78,       150,       -25,     1.05, 0,     100, 0, 1, 0, 0, 1, 1, 100,       355,       170, 1, 1, 0, 1, 0, 1, 0, 1, 0, 1
   123,  1,       155,     31.79,        80,       -50,     1.05, 0,     100, 0, 1, 0, 0, 1, 1, 100,       155,        62, 1, 1, 0, 1, 0, 1, 0, 1, 0, 1
   123,  1,       350,     71.78,       150,       -25,     1.05, 0,     100, 0, 1, 0, 0, 1, 1, 100,       350,       140, 1, 1, 0, 1, 0, 1, 0, 1, 0, 1
   123,  1,        55,        11,        19,       -15,    1.028, 0,     100, 0, 1, 0, 0, 1, 1, 100,        55,        22, 1, 1, 0, 1, 0, 1, 0, 1, 0, 1
   123,  1,        55,        11,        19,       -15,    1.028, 0,     100, 0, 1, 0, 0, 1, 1, 100,        55,        22, 1, 1, 0, 1, 0, 1, 0, 1, 0, 1
   123,  1,        55,        11,        19,       -15,    1.028, 0,     100, 0, 1, 0, 0, 1, 1, 100,        55,        22, 1, 1, 0, 1, 0, 1, 0, 1, 0, 1
   201,  1,        10,         0,        10,         0,    1.035, 0,     100, 0, 1, 0, 0, 1, 1, 100,        20,         8, 1, 1, 0, 1, 0, 1, 0, 1, 0, 1
   201,  1,        10,         0,        10,         0,    1.035, 0,     100, 0, 1, 0, 0, 1, 1, 100,        20,         8, 1, 1, 0, 1, 0, 1, 0, 1, 0, 1
   201,  1,        76,      14.1,        30,       -25,    1.035, 0,     100, 0, 1, 0, 0, 1, 1, 100,        76,        30, 1, 1, 0, 1, 0, 1, 0, 1, 0, 1
   202,  1,        10,         0,        10,         0,    1.035, 0,     100, 0, 1, 0, 0, 1, 1, 100,        20,         8, 1, 1, 0, 1, 0, 1, 0, 1, 0, 1
   202,  1,        10,         0,        10,         0,    1.035, 0,     100, 0, 1, 0, 0, 1, 1, 100,        20,         8, 1, 1, 0, 1, 0, 1, 0, 1, 0, 1
   202,  1,        76,         7,        30,       -25,    1.035, 0,     100, 0, 1, 0, 0, 1, 1, 100,        76,        30, 1, 1, 0, 1, 0, 1, 0, 1, 0, 1
   202,  1,        76,         7,        30,       -25,    1.035, 0,     100, 0, 1, 0, 0, 1, 1, 100,        76,        30, 1, 1, 0, 1, 0, 1, 0, 1, 0, 1
   207,  1,        55,        11,        19,       -15,    1.028, 0,     100, 0, 1, 0, 0, 1, 1, 100,        55,        22, 1, 1, 0, 1, 0, 1, 0, 1, 0, 1
   207,  1,        55,        11,        19,       -15,    1.028, 0,     100, 0, 1, 0, 0, 1, 1, 100,        55,        22, 1, 1, 0, 1, 0, 1, 0, 1, 0, 1
   213,  1,       355,     71.78,       150,       -25,     1.05, 0,     100, 0, 1, 0, 0, 1, 1, 100,       355,       170, 1, 1, 0, 1, 0, 1, 0, 1, 0, 1
   213,  1,        55,        11,        19,       -15,    1.028, 0,     100, 0, 1, 0, 0, 1, 1, 100,        55,        22, 1, 1, 0, 1, 0, 1, 0, 1, 0, 1
   213,  1,        55,        11,        19,       -15,    1.028, 0,     100, 0, 1, 0, 0, 1, 1, 100,        55,        22, 1, 1, 0, 1, 0, 1, 0, 1, 0, 1
   215,  1,        55,        11,        19,       -15,    1.028, 0,     100, 0, 1, 0, 0, 1, 1, 100,        55,        22, 1, 1, 0, 1, 0, 1, 0, 1, 0, 1
   215,  1,        55,        11,        19,       -15,    1.028, 0,     100, 0, 1, 0, 0, 1, 1, 100,        55,        22, 1, 1, 0, 1, 0, 1, 0, 1, 0, 1
   216,  1,       155,     25.22,        80,       -50,    1.017, 0,     100, 0, 1, 0, 0, 1, 1, 100,       155,        62, 1, 1, 0, 1, 0, 1, 0, 1, 0, 1
   218,  1,       355,     71.78,       150,       -25,     1.05, 0,     100, 0, 1, 0, 0, 1, 1, 100,       355,       170, 1, 1, 0, 1, 0, 1, 0, 1, 0, 1
   221,  1,       355,     71.78,       150,       -25,     1.05, 0,     100, 0, 1, 0, 0, 1, 1, 100,       355,       170, 1, 1, 0, 1, 0, 1, 0, 1, 0, 1
   223,  1,       155,     31.79,        80,       -50,     1.05, 0,     100, 0, 1, 0, 0, 1, 1, 100,       155,        62, 1, 1, 0, 1, 0, 1, 0, 1, 0, 1
   223,  1,       155,     31.79,        80,       -50,     1.05, 0,     100, 0, 1, 0, 0, 1, 1, 100,       155,        62, 1, 1, 0, 1, 0, 1, 0, 1, 0, 1
   223,  1,       350,     71.78,       150,       -25,     1.05, 0,     100, 0, 1, 0, 0, 1, 1, 100,       350,       140, 1, 1, 0, 1, 0, 1, 0, 1, 0, 1
   223,  1,        55,        11,        19,       -15,    1.028, 0,     100, 0, 1, 0, 0, 1, 1, 100,        55,        22, 1, 1, 0, 1, 0, 1, 0, 1, 0, 1
   223,  1,        55,        11,        19,       -15,    1.028, 0,     100, 0, 1, 0, 0, 1, 1, 100,        55,        22, 1, 1, 0, 1, 0, 1, 0, 1, 0, 1
   223,  1,        55,        11,        19,       -15,    1.028, 0,     100, 0, 1, 0, 0, 1, 1, 100,        55,        22, 1, 1, 0, 1, 0, 1, 0, 1, 0, 1
   301,  1,        10,         0,        10,         0,    1.035, 0,     100, 0, 1, 0, 0, 1, 1, 100,        20,         8, 1, 1, 0, 1, 0, 1, 0, 1, 0, 1
   301,  1,        10,         0,        10,         0,    1.035, 0,     100, 0, 1, 0, 0, 1, 1, 100,        20,         8, 1, 1, 0, 1, 0, 1, 0, 1, 0, 1
   301,  1,        55,        11,        19,       -15,    1.028, 0,     100, 0, 1, 0, 0, 1, 1, 100,        55,        22, 1, 1, 0, 1, 0, 1, 0, 1, 0, 1
   301,  1,        55,        11,        19,       -15,    1.028, 0,     100, 0, 1, 0, 0, 1, 1, 100,        55,        22, 1, 1, 0, 1, 0, 1, 0, 1, 0, 1
   302,  1,        10,         0,        10,         0,    1.035, 0,     100, 0, 1, 0, 0, 1, 1, 100,        20,         8, 1, 1, 0, 1, 0, 1, 0, 1, 0, 1
   302,  1,        10,         0,        10,         0,    1.035, 0,     100, 0, 1, 0, 0, 1, 1, 100,        20,         8, 1, 1, 0, 1, 0, 1, 0, 1, 0, 1
   302,  1,        55,        11,        19,       -15,    1.028, 0,     100, 0, 1, 0, 0, 1, 1, 100,        55,        22, 1, 1, 0, 1, 0, 1, 0, 1, 0, 1
   302,  1,        55,        11,        19,       -15,    1.028, 0,     100, 0, 1, 0, 0, 1, 1, 100,        55,        22, 1, 1, 0, 1, 0, 1, 0, 1, 0, 1
   307,  1,        55,        11,        19,       -15,    1.028, 0,     100, 0, 1, 0, 0, 1, 1, 100,        55,        22, 1, 1, 0, 1, 0, 1, 0, 1, 0, 1
   307,  1,        55,        11,        19,       -15,    1.028, 0,     100, 0, 1, 0, 0, 1, 1, 100,        55,        22, 1, 1, 0, 1, 0, 1, 0, 1, 0, 1
   313,  1,       355,     71.78,       150,       -25,     1.05, 0,     100, 0, 1, 0, 0, 1, 1, 100,       355,       170, 1, 1, 0, 1, 0, 1, 0, 1, 0, 1
   315,  1,        12,         0,         6,         0,    1.014, 0,     100, 0, 1, 0, 0, 1, 1, 100,        12,         5, 1, 1, 0, 1, 0, 1, 0, 1, 0, 1
   315,  1,        12,         0,         6,         0,    1.014, 0,     100, 0, 1, 0, 0, 1, 1, 100,        12,         5, 1, 1, 0, 1, 0, 1, 0, 1, 0, 1
   315,  1,        12,         0,         6,         0,    1.014, 0,     100, 0, 1, 0, 0, 1, 1, 100,        12,         5, 1, 1, 0, 1, 0, 1, 0, 1, 0, 1
   315,  1,        12,         0,         6,         0,    1.014, 0,     100, 0, 1, 0, 0, 1, 1, 100,        12,         5, 1, 1, 0, 1, 0, 1, 0, 1, 0, 1
   315,  1,        12,         0,         6,         0,    1.014, 0,     100, 0, 1, 0, 0, 1, 1, 100,        12,         5, 1, 1, 0, 1, 0, 1, 0, 1, 0, 1
   315,  1,        55,        11,        19,       -15,    1.028, 0,     100, 0, 1, 0, 0, 1, 1, 100,        55,        22, 1, 1, 0, 1, 0, 1, 0, 1, 0, 1
   315,  1,        55,        11,        19,       -15,    1.028, 0,     100, 0, 1, 0, 0, 1, 1, 100,        55,        22, 1, 1, 0, 1, 0, 1, 0, 1, 0, 1
   315,  1,        55,      17.2,        60,         0,    1.025, 0,     100, 0, 1, 0, 0, 1, 1, 100,        55,        22, 1, 1, 0, 1, 0, 1, 0, 1, 0, 1
   316,  1,       155,     25.22,        80,       -50,    1.017, 0,     100, 0, 1, 0, 0, 1, 1, 100,       155,        62, 1, 1, 0, 1, 0, 1, 0, 1, 0, 1
   318,  1,       355,     71.78,       150,       -25,     1.05, 0,     100, 0, 1, 0, 0, 1, 1, 100,       355,       170, 1, 1, 0, 1, 0, 1, 0, 1, 0, 1
   321,  1,       355,     71.78,       150,       -25,     1.05, 0,     100, 0, 1, 0, 0, 1, 1, 100,       355,       170, 1, 1, 0, 1, 0, 1, 0, 1, 0, 1
   322,  1,        55,        11,        19,       -15,    1.028, 0,     100, 0, 1, 0, 0, 1, 1, 100,        55,        22, 1, 1, 0, 1, 0, 1, 0, 1, 0, 1
   322,  1,        55,        11,        19,       -15,    1.028, 0,     100, 0, 1, 0, 0, 1, 1, 100,        55,        22, 1, 1, 0, 1, 0, 1, 0, 1, 0, 1
   323,  1,       355,     71.78,       150,       -25,     1.05, 0,     100, 0, 1, 0, 0, 1, 1, 100,       355,       170, 1, 1, 0, 1, 0, 1, 0, 1, 0, 1
   323,  1,       355,     71.78,       150,       -25,     1.05, 0,     100, 0, 1, 0, 0, 1, 1, 100,       355,       170, 1, 1, 0, 1, 0, 1, 0, 1, 0, 1
   114,  1,         0,      13.7,       200,       -50,     0.98, 0,     100, 0, 1, 0, 0, 1, 1, 100,         0,         0, 1, 1, 0, 1, 0, 1, 0, 1, 0, 1
   121,  1,       400,     108.2,       200,       -50,     1.05, 0,     100, 0, 1, 0, 0, 1, 1, 100,       400,       396, 1, 1, 0, 1, 0, 1, 0, 1, 0, 1
   122,  1,        50,     -4.96,        16,       -10,     1.05, 0,     100, 0, 1, 0, 0, 1, 1, 100,        50,         0, 1, 1, 0, 1, 0, 1, 0, 1, 0, 1
   122,  1,        50,     -4.96,        16,       -10,     1.05, 0,     100, 0, 1, 0, 0, 1, 1, 100,        50,         0, 1, 1, 0, 1, 0, 1, 0, 1, 0, 1
   122,  1,        50,     -4.96,        16,       -10,     1.05, 0,     100, 0, 1, 0, 0, 1, 1, 100,        50,         0, 1, 1, 0, 1, 0, 1, 0, 1, 0, 1
   122,  1,        50,     -4.96,        16,       -10,     1.05, 0,     100, 0, 1, 0, 0, 1, 1, 100,        50,         0, 1, 1, 0, 1, 0, 1, 0, 1, 0, 1
   122,  1,        50,     -4.96,        16,       -10,     1.05, 0,     100, 0, 1, 0, 0, 1, 1, 100,        50,         0, 1, 1, 0, 1, 0, 1, 0, 1, 0, 1
   122,  1,        50,     -4.96,        16,       -10,     1.05, 0,     100, 0, 1, 0, 0, 1, 1, 100,        50,         0, 1, 1, 0, 1, 0, 1, 0, 1, 0, 1
   201,  1,        50,     -4.96,        16,       -10,     1.05, 0,     100, 0, 1, 0, 0, 1, 1, 100,        50,         0, 1, 1, 0, 1, 0, 1, 0, 1, 0, 1
   214,  1,         0,     13.68,       200,       -50,     0.98, 0,     100, 0, 1, 0, 0, 1, 1, 100,         0,         0, 1, 1, 0, 1, 0, 1, 0, 1, 0, 1
   215,  1,        50,     -4.96,        16,       -10,     1.05, 0,     100, 0, 1, 0, 0, 1, 1, 100,        50,         0, 1, 1, 0, 1, 0, 1, 0, 1, 0, 1
   215,  1,        50,     -4.96,        16,       -10,     1.05, 0,     100, 0, 1, 0, 0, 1, 1, 100,        50,         0, 1, 1, 0, 1, 0, 1, 0, 1, 0, 1
   215,  1,        50,     -4.96,        16,       -10,     1.05, 0,     100, 0, 1, 0, 0, 1, 1, 100,        50,         0, 1, 1, 0, 1, 0, 1, 0, 1, 0, 1
   222,  1,        50,     -4.96,        16,       -10,     1.05, 0,     100, 0, 1, 0, 0, 1, 1, 100,        50,         0, 1, 1, 0, 1, 0, 1, 0, 1, 0, 1
   222,  1,        50,     -4.96,        16,       -10,     1.05, 0,     100, 0, 1, 0, 0, 1, 1, 100,        50,         0, 1, 1, 0, 1, 0, 1, 0, 1, 0, 1
   222,  1,        50,     -4.96,        16,       -10,     1.05, 0,     100, 0, 1, 0, 0, 1, 1, 100,        50,         0, 1, 1, 0, 1, 0, 1, 0, 1, 0, 1
   222,  1,        50,     -4.96,        16,       -10,     1.05, 0,     100, 0, 1, 0, 0, 1, 1, 100,        50,         0, 1, 1, 0, 1, 0, 1, 0, 1, 0, 1
   222,  1,        50,     -4.96,        16,       -10,     1.05, 0,     100, 0, 1, 0, 0, 1, 1, 100,        50,         0, 1, 1, 0, 1, 0, 1, 0, 1, 0, 1
   222,  1,        50,     -4.96,        16,       -10,     1.05, 0,     100, 0, 1, 0, 0, 1, 1, 100,        50,         0, 1, 1, 0, 1, 0, 1, 0, 1, 0, 1
   314,  1,         0,     13.68,       200,       -50,     0.98, 0,     100, 0, 1, 0, 0, 1, 1, 100,         0,         0, 1, 1, 0, 1, 0, 1, 0, 1, 0, 1
   322,  1,        50,     -4.96,        16,       -10,     1.05, 0,     100, 0, 1, 0, 0, 1, 1, 100,        50,         0, 1, 1, 0, 1, 0, 1, 0, 1, 0, 1
   322,  1,        50,     -4.96,        16,       -10,     1.05, 0,     100, 0, 1, 0, 0, 1, 1, 100,        50,         0, 1, 1, 0, 1, 0, 1, 0, 1, 0, 1
   322,  1,        50,     -4.96,        16,       -10,     1.05, 0,     100, 0, 1, 0, 0, 1, 1, 100,        50,         0, 1, 1, 0, 1, 0, 1, 0, 1, 0, 1
   322,  1,        50,     -4.96,        16,       -10,     1.05, 0,     100, 0, 1, 0, 0, 1, 1, 100,        50,         0, 1, 1, 0, 1, 0, 1, 0, 1, 0, 1
   320,  1,         0,         0,         0,         0,        1, 0,     100, 0, 1, 0, 0, 1, 0, 100,      51.6,         0, 1, 1, 0, 1, 0, 1, 0, 1, 0, 1
   314,  1,         0,         0,         0,         0,        1, 0,     100, 0, 1, 0, 0, 1, 0, 100,      51.6,         0, 1, 1, 0, 1, 0, 1, 0, 1, 0, 1
   314,  1,         0,         0,         0,         0,        1, 0,     100, 0, 1, 0, 0, 1, 0, 100,      51.6,         0, 1, 1, 0, 1, 0, 1, 0, 1, 0, 1
   313,  1,         0,         0,         0,         0,        1, 0,     100, 0, 1, 0, 0, 1, 0, 100,      95.1,         0, 1, 1, 0, 1, 0, 1, 0, 1, 0, 1
   314,  1,         0,         0,         0,         0,        1, 0,     100, 0, 1, 0, 0, 1, 0, 100,      92.7,         0, 1, 1, 0, 1, 0, 1, 0, 1, 0, 1
   314,  1,         0,         0,         0,         0,        1, 0,     100, 0, 1, 0, 0, 1, 0, 100,      51.6,         0, 1, 1, 0, 1, 0, 1, 0, 1, 0, 1
   313,  1,         0,         0,         0,         0,        1, 0,     100, 0, 1, 0, 0, 1, 0, 100,      93.3,         0, 1, 1, 0, 1, 0, 1, 0, 1, 0, 1
   310,  1,         0,         0,         0,         0,        1, 0,     100, 0, 1, 0, 0, 1, 0, 100,      51.7,         0, 1, 1, 0, 1, 0, 1, 0, 1, 0, 1
   324,  1,         0,         0,         0,         0,        1, 0,     100, 0, 1, 0, 0, 1, 0, 100,      49.7,         0, 1, 1, 0, 1, 0, 1, 0, 1, 0, 1
   312,  1,         0,         0,         0,         0,        1, 0,     100, 0, 1, 0, 0, 1, 0, 100,      94.1,         0, 1, 1, 0, 1, 0, 1, 0, 1, 0, 1
   310,  1,         0,         0,         0,         0,        1, 0,     100, 0, 1, 0, 0, 1, 0, 100,      51.6,         0, 1, 1, 0, 1, 0, 1, 0, 1, 0, 1
   324,  1,         0,         0,         0,         0,        1, 0,     100, 0, 1, 0, 0, 1, 0, 100,      51.6,         0, 1, 1, 0, 1, 0, 1, 0, 1, 0, 1
   324,  1,         0,         0,         0,         0,        1, 0,     100, 0, 1, 0, 0, 1, 0, 100,        51,         0, 1, 1, 0, 1, 0, 1, 0, 1, 0, 1
   113,  1,         0,         0,         0,         0,        1, 0,     100, 0, 1, 0, 0, 1, 0, 100,      93.6,         0, 1, 1, 0, 1, 0, 1, 0, 1, 0, 1
   319,  1,         0,         0,         0,         0,        1, 0,     100, 0, 1, 0, 0, 1, 0, 100,     188.2,         0, 1, 1, 0, 1, 0, 1, 0, 1, 0, 1
   215,  1,         0,         0,         0,         0,        1, 0,     100, 0, 1, 0, 0, 1, 0, 100,     125.1,         0, 1, 1, 0, 1, 0, 1, 0, 1, 0, 1
   102,  1,         0,         0,         0,         0,        1, 0,     100, 0, 1, 0, 0, 1, 0, 100,      25.6,         0, 1, 1, 0, 1, 0, 1, 0, 1, 0, 1
   101,  1,         0,         0,         0,         0,        1, 0,     100, 0, 1, 0, 0, 1, 0, 100,      25.9,         0, 1, 1, 0, 1, 0, 1, 0, 1, 0, 1
   102,  1,         0,         0,         0,         0,        1, 0,     100, 0, 1, 0, 0, 1, 0, 100,      25.3,         0, 1, 1, 0, 1, 0, 1, 0, 1, 0, 1
   104,  1,         0,         0,         0,         0,        1, 0,     100, 0, 1, 0, 0, 1, 0, 100,      26.8,         0, 1, 1, 0, 1, 0, 1, 0, 1, 0, 1
   212,  1,         0,         0,         0,         0,        1, 0,     100, 0, 1, 0, 0, 1, 0, 100,       200,        30, 1, 1, 0, 1, 0, 1, 0, 1, 0, 1
   101,  1,         0,         0,         0,         0,        1, 0,     100, 0, 1, 0, 0, 1, 0, 100,      26.7,         0, 1, 1, 0, 1, 0, 1, 0, 1, 0, 1
   101,  1,         0,         0,         0,         0,        1, 0,     100, 0, 1, 0, 0, 1, 0, 100,      26.2,         0, 1, 1, 0, 1, 0, 1, 0, 1, 0, 1
   101,  1,         0,         0,         0,         0,        1, 0,     100, 0, 1, 0, 0, 1, 0, 100,      25.8,         0, 1, 1, 0, 1, 0, 1, 0, 1, 0, 1
   103,  1,         0,         0,         0,         0,        1, 0,     100, 0, 1, 0, 0, 1, 0, 100,      61.5,         0, 1, 1, 0, 1, 0, 1, 0, 1, 0, 1
   119,  1,         0,         0,         0,         0,        1, 0,     100, 0, 1, 0, 0, 1, 0, 100,      66.6,         0, 1, 1, 0, 1, 0, 1, 0, 1, 0, 1
   308,  1,         0,         0,         0,         0,        1, 0,     100, 0, 1, 0, 0, 1, 0, 100,     100.9,         0, 1, 1, 0, 1, 0, 1, 0, 1, 0, 1
   313,  1,         0,         0,         0,         0,        1, 0,     100, 0, 1, 0, 0, 1, 0, 100,     101.7,         0, 1, 1, 0, 1, 0, 1, 0, 1, 0, 1
   313,  1,         0,         0,         0,         0,        1, 0,     100, 0, 1, 0, 0, 1, 0, 100,      63.1,         0, 1, 1, 0, 1, 0, 1, 0, 1, 0, 1
   313,  1,         0,         0,         0,         0,        1, 0,     100, 0, 1, 0, 0, 1, 0, 100,      65.4,         0, 1, 1, 0, 1, 0, 1, 0, 1, 0, 1
   313,  1,         0,         0,         0,         0,        1, 0,     100, 0, 1, 0, 0, 1, 0, 100,        67,         0, 1, 1, 0, 1, 0, 1, 0, 1, 0, 1
   313,  1,         0,         0,         0,         0,        1, 0,     100, 0, 1, 0, 0, 1, 0, 100,      64.8,         0, 1, 1, 0, 1, 0, 1, 0, 1, 0, 1
   313,  1,         0,         0,         0,         0,        1, 0,     100, 0, 1, 0, 0, 1, 0, 100,      63.8,         0, 1, 1, 0, 1, 0, 1, 0, 1, 0, 1
   313,  1,         0,         0,         0,         0,        1, 0,     100, 0, 1, 0, 0, 1, 0, 100,      64.1,         0, 1, 1, 0, 1, 0, 1, 0, 1, 0, 1
   313,  1,         0,         0,         0,         0,        1, 0,     100, 0, 1, 0, 0, 1, 0, 100,      66.6,         0, 1, 1, 0, 1, 0, 1, 0, 1, 0, 1
   313,  1,         0,         0,         0,         0,        1, 0,     100, 0, 1, 0, 0, 1, 0, 100,      62.4,         0, 1, 1, 0, 1, 0, 1, 0, 1, 0, 1
   313,  1,         0,         0,         0,         0,        1, 0,     100, 0, 1, 0, 0, 1, 0, 100,      66.9,         0, 1, 1, 0, 1, 0, 1, 0, 1, 0, 1
   313,  1,         0,         0,         0,         0,        1, 0,     100, 0, 1, 0, 0, 1, 0, 100,      65.2,         0, 1, 1, 0, 1, 0, 1, 0, 1, 0, 1
   313,  1,         0,         0,         0,         0,        1, 0,     100, 0, 1, 0, 0, 1, 0, 100,      27.8,         0, 1, 1, 0, 1, 0, 1, 0, 1, 0, 1
   320,  1,         0,         0,         0,         0,        1, 0,     100, 0, 1, 0, 0, 1, 0, 100,      27.3,         0, 1, 1, 0, 1, 0, 1, 0, 1, 0, 1
   320,  1,         0,         0,         0,         0,        1, 0,     100, 0, 1, 0, 0, 1, 0, 100,        27,         0, 1, 1, 0, 1, 0, 1, 0, 1, 0, 1
   320,  1,         0,         0,         0,         0,        1, 0,     100, 0, 1, 0, 0, 1, 0, 100,      28.3,         0, 1, 1, 0, 1, 0, 1, 0, 1, 0, 1
   313,  1,         0,         0,         0,         0,        1, 0,     100, 0, 1, 0, 0, 1, 0, 100,      27.2,         0, 1, 1, 0, 1, 0, 1, 0, 1, 0, 1
   320,  1,         0,         0,         0,         0,        1, 0,     100, 0, 1, 0, 0, 1, 0, 100,        27,         0, 1, 1, 0, 1, 0, 1, 0, 1, 0, 1
   320,  1,         0,         0,         0,         0,        1, 0,     100, 0, 1, 0, 0, 1, 0, 100,      28.2,         0, 1, 1, 0, 1, 0, 1, 0, 1, 0, 1
   118,  1,         0,         0,         0,         0,        1, 0,     100, 0, 1, 0, 0, 1, 0, 100,       9.3,         0, 1, 1, 0, 1, 0, 1, 0, 1, 0, 1
   118,  1,         0,         0,         0,         0,        1, 0,     100, 0, 1, 0, 0, 1, 0, 100,       9.7,         0, 1, 1, 0, 1, 0, 1, 0, 1, 0, 1
   118,  1,         0,         0,         0,         0,        1, 0,     100, 0, 1, 0, 0, 1, 0, 100,       9.4,         0, 1, 1, 0, 1, 0, 1, 0, 1, 0, 1
   118,  1,         0,         0,         0,         0,        1, 0,     100, 0, 1, 0, 0, 1, 0, 100,       9.1,         0, 1, 1, 0, 1, 0, 1, 0, 1, 0, 1
   118,  1,         0,         0,         0,         0,        1, 0,     100, 0, 1, 0, 0, 1, 0, 100,       9.1,         0, 1, 1, 0, 1, 0, 1, 0, 1, 0, 1
   118,  1,         0,         0,         0,         0,        1, 0,     100, 0, 1, 0, 0, 1, 0, 100,       9.7,         0, 1, 1, 0, 1, 0, 1, 0, 1, 0, 1
   320,  1,         0,         0,         0,         0,        1, 0,     100, 0, 1, 0, 0, 1, 0, 100,       9.4,         0, 1, 1, 0, 1, 0, 1, 0, 1, 0, 1
   118,  1,         0,         0,         0,         0,        1, 0,     100, 0, 1, 0, 0, 1, 0, 100,      11.8,         0, 1, 1, 0, 1, 0, 1, 0, 1, 0, 1
   118,  1,         0,         0,         0,         0,        1, 0,     100, 0, 1, 0, 0, 1, 0, 100,      11.2,         0, 1, 1, 0, 1, 0, 1, 0, 1, 0, 1
   118,  1,         0,         0,         0,         0,        1, 0,     100, 0, 1, 0, 0, 1, 0, 100,      10.3,         0, 1, 1, 0, 1, 0, 1, 0, 1, 0, 1
   118,  1,         0,         0,         0,         0,        1, 0,     100, 0, 1, 0, 0, 1, 0, 100,       4.5,         0, 1, 1, 0, 1, 0, 1, 0, 1, 0, 1
   213,  1,         0,         0,         0,         0,        1, 0,     100, 0, 1, 0, 0, 1, 0, 100,      13.2,         0, 1, 1, 0, 1, 0, 1, 0, 1, 0, 1
   309,  1,         0,         0,         0,         0,        1, 0,     100, 0, 1, 0, 0, 1, 0, 100,     148.3,         0, 1, 1, 0, 1, 0, 1, 0, 1, 0, 1
   317,  1,         0,         0,         0,         0,        1, 0,     100, 0, 1, 0, 0, 1, 0, 100,     799.1,         0, 1, 1, 0, 1, 0, 1, 0, 1, 0, 1
   303,  1,         0,         0,         0,         0,        1, 0,     100, 0, 1, 0, 0, 1, 0, 100,       847,         0, 1, 1, 0, 1, 0, 1, 0, 1, 0, 1
   122,  1,         0,         0,         0,         0,        1, 0,     100, 0, 1, 0, 0, 1, 0, 100,     713.5,         0, 1, 1, 0, 1, 0, 1, 0, 1, 0, 1
   313,  1,         0,         0,         0,         0,        1, 0,     100, 0, 1, 0, 0, 1, 1, 100,        50,         0, 1, 1, 0, 1, 0, 1, 0, 1, 0, 1
0 / END OF GENERATOR DATA, BEGIN BRANCH DATA
   101,    102, 1,    0.003,    0.014,    0.461,     175,     175,     175, 0, 0, 0, 0, 1, 1, 0, 1, 1, 0, 1, 0, 1, 0, 1
   101,    103, 1,    0.055,    0.211,    0.057,     175,     175,     175, 0, 0, 0, 0, 1, 1, 0, 1, 1, 0, 1, 0, 1, 0, 1
   101,    105, 1,    0.022,    0.085,    0.023,     175,     175,     175, 0, 0, 0, 0, 1, 1, 0, 1, 1, 0, 1, 0, 1, 0, 1
   102,    104, 1,    0.033,    0.127,    0.034,     175,     175,     175, 0, 0, 0, 0, 1, 1, 0, 1, 1, 0, 1, 0, 1, 0, 1
   102,    106, 1,     0.05,    0.192,    0.052,     175,     175,     175, 0, 0, 0, 0, 1, 1, 0, 1, 1, 0, 1, 0, 1, 0, 1
   103,    109, 1,    0.031,    0.119,    0.032,     175,     175,     175, 0, 0, 0, 0, 1, 1, 0, 1, 1, 0, 1, 0, 1, 0, 1
   104,    109, 1,    0.027,    0.104,    0.028,     175,     175,     175, 0, 0, 0, 0, 1, 1, 0, 1, 1, 0, 1, 0, 1, 0, 1
   105,    110, 1,    0.023,    0.088,    0.024,     175,     175,     175, 0, 0, 0, 0, 1, 1, 0, 1, 1, 0, 1, 0, 1, 0, 1
   106,    110, 1,    0.014,    0.061,    2.459,     175,     175,     175, 0, 0, 0, 0, 1, 1, 0, 1, 1, 0, 1, 0, 1, 0, 1
   107,    108, 1,    0.016,    0.061,    0.017,     175,     175,     175, 0, 0, 0, 0, 1, 1, 0, 1, 1, 0, 1, 0, 1, 0, 1
   107,    203, 1,    0.042,    0.161,    0.044,     175,     175,     175, 0, 0, 0, 0, 1, 1, 0, 1, 1, 0, 1, 0, 1, 0, 1
   108,    109, 1,    0.043,    0.165,    0.045,     175,     175,     175, 0, 0, 0, 0, 1, 1, 0, 1, 1, 0, 1, 0, 1, 0, 1
   108,    110, 1,    0.043,    0.165,    0.045,     175,     175,     175, 0, 0, 0, 0, 1, 1, 0, 1, 1, 0, 1, 0, 1, 0, 1
   111,    113, 1,    0.006,    0.048,      0.1,     500,     500,     500, 0, 0, 0, 0, 1, 1, 0, 1, 1, 0, 1, 0, 1, 0, 1
   111,    114, 1,    0.005,    0.042,    0.088,     500,     500,     500, 0, 0, 0, 0, 1, 1, 0, 1, 1, 0, 1, 0, 1, 0, 1
   112,    113, 1,    0.006,    0.048,      0.1,     500,     500,     500, 0, 0, 0, 0, 1, 1, 0, 1, 1, 0, 1, 0, 1, 0, 1
   112,    123, 1,    0.012,    0.097,    0.203,     500,     500,     500, 0, 0, 0, 0, 1, 1, 0, 1, 1, 0, 1, 0, 1, 0, 1
   113,    123, 1,    0.011,    0.087,    0.182,     500,     500,     500, 0, 0, 0, 0, 1, 1, 0, 1, 1, 0, 1, 0, 1, 0, 1
   113,    215, 1,     0.01,    0.075,    0.158,     500,     500,     500, 0, 0, 0, 0, 1, 1, 0, 1, 1, 0, 1, 0, 1, 0, 1
   114,    116, 1,    0.005,    0.059,    0.082,     500,     500,     500, 0, 0, 0, 0, 1, 1, 0, 1, 1, 0, 1, 0, 1, 0, 1
   115,    116, 1,    0.002,    0.017,    0.036,     500,     500,     500, 0, 0, 0, 0, 1, 1, 0, 1, 1, 0, 1, 0, 1, 0, 1
   115,    121, 1,    0.006,    0.049,    0.103,     500,     500,     500, 0, 0, 0, 0, 1, 1, 0, 1, 1, 0, 1, 0, 1, 0, 1
   115,    121, 1,    0.006,    0.049,    0.103,     500,     500,     500, 0, 0, 0, 0, 1, 1, 0, 1, 1, 0, 1, 0, 1, 0, 1
   115,    124, 1,    0.007,    0.052,    0.109,     500,     500,     500, 0, 0, 0, 0, 1, 1, 0, 1, 1, 0, 1, 0, 1, 0, 1
   116,    117, 1,    0.003,    0.026,    0.055,     500,     500,     500, 0, 0, 0, 0, 1, 1, 0, 1, 1, 0, 1, 0, 1, 0, 1
   116,    119, 1,    0.003,    0.023,    0.049,     500,     500,     500, 0, 0, 0, 0, 1, 1, 0, 1, 1, 0, 1, 0, 1, 0, 1
   117,    118, 1,    0.002,    0.014,     0.03,     500,     500,     500, 0, 0, 0, 0, 1, 1, 0, 1, 1, 0, 1, 0, 1, 0, 1
   117,    122, 1,    0.014,    0.105,    0.221,     500,     500,     500, 0, 0, 0, 0, 1, 1, 0, 1, 1, 0, 1, 0, 1, 0, 1
   118,    121, 1,    0.003,    0.026,    0.055,     500,     500,     500, 0, 0, 0, 0, 1, 1, 0, 1, 1, 0, 1, 0, 1, 0, 1
   118,    121, 1,    0.003,    0.026,    0.055,     500,     500,     500, 0, 0, 0, 0, 1, 1, 0, 1, 1, 0, 1, 0, 1, 0, 1
   119,    120, 1,    0.005,     0.04,    0.083,     500,     500,     500, 0, 0, 0, 0, 1, 1, 0, 1, 1, 0, 1, 0, 1, 0, 1
   119,    120, 1,    0.005,     0.04,    0.083,     500,     500,     500, 0, 0, 0, 0, 1, 1, 0, 1, 1, 0, 1, 0, 1, 0, 1
   120,    123, 1,    0.003,    0.022,    0.046,     500,     500,     500, 0, 0, 0, 0, 1, 1, 0, 1, 1, 0, 1, 0, 1, 0, 1
   120,    123, 1,    0.003,    0.022,    0.046,     500,     500,     500, 0, 0, 0, 0, 1, 1, 0, 1, 1, 0, 1, 0, 1, 0, 1
   121,    122, 1,    0.009,    0.068,    0.142,     500,     500,     500, 0, 0, 0, 0, 1, 1, 0, 1, 1, 0, 1, 0, 1, 0, 1
   123,    217, 1,     0.01,    0.074,    0.155,     500,     500,     500, 0, 0, 0, 0, 1, 1, 0, 1, 1, 0, 1, 0, 1, 0, 1
   201,    202, 1,    0.003,    0.014,    0.461,     175,     175,     175, 0, 0, 0, 0, 1, 1, 0, 1, 1, 0, 1, 0, 1, 0, 1
   201,    203, 1,    0.055,    0.211,    0.057,     175,     175,     175, 0, 0, 0, 0, 1, 1, 0, 1, 1, 0, 1, 0, 1, 0, 1
   201,    205, 1,    0.022,    0.085,    0.023,     175,     175,     175, 0, 0, 0, 0, 1, 1, 0, 1, 1, 0, 1, 0, 1, 0, 1
   202,    204, 1,    0.033,    0.127,    0.034,     175,     175,     175, 0, 0, 0, 0, 1, 1, 0, 1, 1, 0, 1, 0, 1, 0, 1
   202,    206, 1,     0.05,    0.192,    0.052,     175,     175,     175, 0, 0, 0, 0, 1, 1, 0, 1, 1, 0, 1, 0, 1, 0, 1
   203,    209, 1,    0.031,    0.119,    0.032,     175,     175,     175, 0, 0, 0, 0, 1, 1, 0, 1, 1, 0, 1, 0, 1, 0, 1
   204,    209, 1,    0.027,    0.104,    0.028,     175,     175,     175, 0, 0, 0, 0, 1, 1, 0, 1, 1, 0, 1, 0, 1, 0, 1
   205,    210, 1,    0.023,    0.088,    0.024,     175,     175,     175, 0, 0, 0, 0, 1, 1, 0, 1, 1, 0, 1, 0, 1, 0, 1
   206,    210, 1,    0.014,    0.061,    2.459,     175,     175,     175, 0, 0, 0, 0, 1, 1, 0, 1, 1, 0, 1, 0, 1, 0, 1
   207,    208, 1,    0.016,    0.061,    0.017,     175,     175,     175, 0, 0, 0, 0, 1, 1, 0, 1, 1, 0, 1, 0, 1, 0, 1
   208,    209, 1,    0.043,    0.165,    0.045,     175,     175,     175, 0, 0, 0, 0, 1, 1, 0, 1, 1, 0, 1, 0, 1, 0, 1
   208,    210, 1,    0.043,    0.165,    0.045,     175,     175,     175, 0, 0, 0, 0, 1, 1, 0, 1, 1, 0, 1, 0, 1, 0, 1
   211,    213, 1,    0.006,    0.048,      0.1,     500,     500,     500, 0, 0, 0, 0, 1, 1, 0, 1, 1, 0, 1, 0, 1, 0, 1
   211,    214, 1,    0.005,    0.042,    0.088,     500,     500,     500, 0, 0, 0, 0, 1, 1, 0, 1, 1, 0, 1, 0, 1, 0, 1
   212,    213, 1,    0.006,    0.048,      0.1,     500,     500,     500, 0, 0, 0, 0, 1, 1, 0, 1, 1, 0, 1, 0, 1, 0, 1
   212,    223, 1,    0.012,    0.097,    0.203,     500,     500,     500, 0, 0, 0, 0, 1, 1, 0, 1, 1, 0, 1, 0, 1, 0, 1
   213,    223, 1,    0.011,    0.087,    0.182,     500,     500,     500, 0, 0, 0, 0, 1, 1, 0, 1, 1, 0, 1, 0, 1, 0, 1
   214,    216, 1,    0.005,    0.059,    0.082,     500,     500,     500, 0, 0, 0, 0, 1, 1, 0, 1, 1, 0, 1, 0, 1, 0, 1
   215,    216, 1,    0.002,    0.017,    0.036,     500,     500,     500, 0, 0, 0, 0, 1, 1, 0, 1, 1, 0, 1, 0, 1, 0, 1
   215,    221, 1,    0.006,    0.049,    0.103,     500,     500,     500, 0, 0, 0, 0, 1, 1, 0, 1, 1, 0, 1, 0, 1, 0, 1
   215,    221, 1,    0.006,    0.049,    0.103,     500,     500,     500, 0, 0, 0, 0, 1, 1, 0, 1, 1, 0, 1, 0, 1, 0, 1
   215,    224, 1,    0.007,    0.052,    0.109,     500,     500,     500, 0, 0, 0, 0, 1, 1, 0, 1, 1, 0, 1, 0, 1, 0, 1
   216,    217, 1,    0.003,    0.026,    0.055,     500,     500,     500, 0, 0, 0, 0, 1, 1, 0, 1, 1, 0, 1, 0, 1, 0, 1
   216,    219, 1,    0.003,    0.023,    0.049,     500,     500,     500, 0, 0, 0, 0, 1, 1, 0, 1, 1, 0, 1, 0, 1, 0, 1
   217,    218, 1,    0.002,    0.014,     0.03,     500,     500,     500, 0, 0, 0, 0, 1, 1, 0, 1, 1, 0, 1, 0, 1, 0, 1
   217,    222, 1,    0.014,    0.105,    0.221,     500,     500,     500, 0, 0, 0, 0, 1, 1, 0, 1, 1, 0, 1, 0, 1, 0, 1
   218,    221, 1,    0.003,    0.026,    0.055,     500,     500,     500, 0, 0, 0, 0, 1, 1, 0, 1, 1, 0, 1, 0, 1, 0, 1
   218,    221, 1,    0.003,    0.026,    0.055,     500,     500,     500, 0, 0, 0, 0, 1, 1, 0, 1, 1, 0, 1, 0, 1, 0, 1
   219,    220, 1,    0.005,     0.04,    0.083,     500,     500,     500, 0, 0, 0, 0, 1, 1, 0, 1, 1, 0, 1, 0, 1, 0, 1
   219,    220, 1,    0.005,     0.04,    0.083,     500,     500,     500, 0, 0, 0, 0, 1, 1, 0, 1, 1, 0, 1, 0, 1, 0, 1
   220,    223, 1,    0.003,    0.022,    0.046,     500,     500,     500, 0, 0, 0, 0, 1, 1, 0, 1, 1, 0, 1, 0, 1, 0, 1
   220,    223, 1,    0.003,    0.022,    0.046,     500,     500,     500, 0, 0, 0, 0, 1, 1, 0, 1, 1, 0, 1, 0, 1, 0, 1
   221,    222, 1,    0.009,    0.068,    0.142,     500,     500,     500, 0, 0, 0, 0, 1, 1, 0, 1, 1, 0, 1, 0, 1, 0, 1
   301,    302, 1,    0.003,    0.014,    0.461,     175,     175,     175, 0, 0, 0, 0, 1, 1, 0, 1, 1, 0, 1, 0, 1, 0, 1
   301,    303, 1,    0.055,    0.211,    0.057,     175,     175,     175, 0, 0, 0, 0, 1, 1, 0, 1, 1, 0, 1, 0, 1, 0, 1
   301,    305, 1,    0.022,    0.085,    0.023,     175,     175,     175, 0, 0, 0, 0, 1, 1, 0, 1, 1, 0, 1, 0, 1, 0, 1
   302,    304, 1,    0.033,    0.127,    0.034,     175,     175,     175, 0, 0, 0, 0, 1, 1, 0, 1, 1, 0, 1, 0, 1, 0, 1
   302,    306, 1,     0.05,    0.192,    0.052,     175,     175,     175, 0, 0, 0, 0, 1, 1, 0, 1, 1, 0, 1, 0, 1, 0, 1
   303,    309, 1,    0.031,    0.119,    0.032,     175,     175,     175, 0, 0, 0, 0, 1, 1, 0, 1, 1, 0, 1, 0, 1, 0, 1
   304,    309, 1,    0.027,    0.104,    0.028,     175,     175,     175, 0, 0, 0, 0, 1, 1, 0, 1, 1, 0, 1, 0, 1, 0, 1
   305,    310, 1,    0.023,    0.088,    0.024,     175,     175,     175, 0, 0, 0, 0, 1, 1, 0, 1, 1, 0, 1, 0, 1, 0, 1
   306,    310, 1,    0.014,    0.061,    2.459,     175,     175,     175, 0, 0, 0, 0, 1, 1, 0, 1, 1, 0, 1, 0, 1, 0, 1
   307,    308, 1,    0.016,    0.061,    0.017,     175,     175,     175, 0, 0, 0, 0, 1, 1, 0, 1, 1, 0, 1, 0, 1, 0, 1
   308,    309, 1,    0.043,    0.165,    0.045,     175,     175,     175, 0, 0, 0, 0, 1, 1, 0, 1, 1, 0, 1, 0, 1, 0, 1
   308,    310, 1,    0.043,    0.165,    0.045,     175,     175,     175, 0, 0, 0, 0, 1, 1, 0, 1, 1, 0, 1, 0, 1, 0, 1
   311,    313, 1,    0.006,    0.048,      0.1,     500,     500,     500, 0, 0, 0, 0, 1, 1, 0, 1, 1, 0, 1, 0, 1, 0, 1
   311,    314, 1,    0.005,    0.042,    0.088,     500,     500,     500, 0, 0, 0, 0, 1, 1, 0, 1, 1, 0, 1, 0, 1, 0, 1
   312,    313, 1,    0.006,    0.048,      0.1,     500,     500,     500, 0, 0, 0, 0, 1, 1, 0, 1, 1, 0, 1, 0, 1, 0, 1
   312,    323, 1,    0.012,    0.097,    0.203,     500,     500,     500, 0, 0, 0, 0, 1, 1, 0, 1, 1, 0, 1, 0, 1, 0, 1
   313,    323, 1,    0.011,    0.087,    0.182,     500,     500,     500, 0, 0, 0, 0, 1, 1, 0, 1, 1, 0, 1, 0, 1, 0, 1
   314,    316, 1,    0.005,    0.059,    0.082,     500,     500,     500, 0, 0, 0, 0, 1, 1, 0, 1, 1, 0, 1, 0, 1, 0, 1
   315,    316, 1,    0.002,    0.017,    0.036,     500,     500,     500, 0, 0, 0, 0, 1, 1, 0, 1, 1, 0, 1, 0, 1, 0, 1
   315,    321, 1,    0.006,    0.049,    0.103,     500,     500,     500, 0, 0, 0, 0, 1, 1, 0, 1, 1, 0, 1, 0, 1, 0, 1
   315,    321, 1,    0.006,    0.049,    0.103,     500,     500,     500, 0, 0, 0, 0, 1, 1, 0, 1, 1, 0, 1, 0, 1, 0, 1
   315,    324, 1,    0.007,    0.052,    0.109,     500,     500,     500, 0, 0, 0, 0, 1, 1, 0, 1, 1, 0, 1, 0, 1, 0, 1
   316,    317, 1,    0.003,    0.026,    0.055,     500,     500,     500, 0, 0, 0, 0, 1, 1, 0, 1, 1, 0, 1, 0, 1, 0, 1
   316,    319, 1,    0.003,    0.023,    0.049,     500,     500,     500, 0, 0, 0, 0, 1, 1, 0, 1, 1, 0, 1, 0, 1, 0, 1
   317,    318, 1,    0.002,    0.014,     0.03,     500,     500,     500, 0, 0, 0, 0, 1, 1, 0, 1, 1, 0, 1, 0, 1, 0, 1
   317,    322, 1,    0.014,    0.105,    0.221,     500,     500,     500, 0, 0, 0, 0, 1, 1, 0, 1, 1, 0, 1, 0, 1, 0, 1
   318,    321, 1,    0.003,    0.026,    0.055,     500,     500,     500, 0, 0, 0, 0, 1, 1, 0, 1, 1, 0, 1, 0, 1, 0, 1
   318,    321, 1,    0.003,    0.026,    0.055,     500,     500,     500, 0, 0, 0, 0, 1, 1, 0, 1, 1, 0, 1, 0, 1, 0, 1
   319,    320, 1,    0.005,     0.04,    0.083,     500,     500,     500, 0, 0, 0, 0, 1, 1, 0, 1, 1, 0, 1, 0, 1, 0, 1
   319,    320, 1,    0.005,     0.04,    0.083,     500,     500,     500, 0, 0, 0, 0, 1, 1, 0, 1, 1, 0, 1, 0, 1, 0, 1
   320,    323, 1,    0.003,    0.022,    0.046,     500,     500,     500, 0, 0, 0, 0, 1, 1, 0, 1, 1, 0, 1, 0, 1, 0, 1
   320,    323, 1,    0.003,    0.022,    0.046,     500,     500,     500, 0, 0, 0, 0, 1, 1, 0, 1, 1, 0, 1, 0, 1, 0, 1
   321,    322, 1,    0.009,    0.068,    0.142,     500,     500,     500, 0, 0, 0, 0, 1, 1, 0, 1, 1, 0, 1, 0, 1, 0, 1
   325,    121, 1,    0.012,    0.097,    0.203,     500,     500,     500, 0, 0, 0, 0, 1, 1, 0, 1, 1, 0, 1, 0, 1, 0, 1
   318,    223, 1,    0.013,    0.104,    0.218,     500,     500,     500, 0, 0, 0, 0, 1, 1, 0, 1, 1, 0, 1, 0, 1, 0, 1
0 / END OF BRANCH DATA, BEGIN TRANSFORMER DATA
   103,    124, 0, 1, 1, 1, 1, 0, 0, 2, '            ', 1, 1, 1, 0, 1, 0, 1, 0, 1, '            '
0.002, 0.084, 100
1.015, 0,     0,     400,     400,     400, 0, 0, 1.1, 0.9, 33, 0, 0, 0, 0
    1, 0
   109,    111, 0, 1, 1, 1, 1, 0, 0, 2, '            ', 1, 1, 1, 0, 1, 0, 1, 0, 1, '            '
0.002, 0.084, 100
 1.03, 0,     0,     400,     400,     400, 0, 0, 1.1, 0.9, 33, 0, 0, 0, 0
    1, 0
   109,    112, 0, 1, 1, 1, 1, 0, 0, 2, '            ', 1, 1, 1, 0, 1, 0, 1, 0, 1, '            '
0.002, 0.084, 100
 1.03, 0,     0,     400,     400,     400, 0, 0, 1.1, 0.9, 33, 0, 0, 0, 0
    1, 0
   110,    111, 0, 1, 1, 1, 1, 0, 0, 2, '            ', 1, 1, 1, 0, 1, 0, 1, 0, 1, '            '
0.002, 0.084, 100
1.015, 0,     0,     400,     400,     400, 0, 0, 1.1, 0.9, 33, 0, 0, 0, 0
    1, 0
   110,    112, 0, 1, 1, 1, 1, 0, 0, 2, '            ', 1, 1, 1, 0, 1, 0, 1, 0, 1, '            '
0.002, 0.084, 100
1.015, 0,     0,     400,     400,     400, 0, 0, 1.1, 0.9, 33, 0, 0, 0, 0
    1, 0
   203,    224, 0, 1, 1, 1, 1, 0, 0, 2, '            ', 1, 1, 1, 0, 1, 0, 1, 0, 1, '            '
0.002, 0.084, 100
1.015, 0,     0,     400,     400,     400, 0, 0, 1.1, 0.9, 33, 0, 0, 0, 0
    1, 0
   209,    211, 0, 1, 1, 1, 1, 0, 0, 2, '            ', 1, 1, 1, 0, 1, 0, 1, 0, 1, '            '
0.002, 0.084, 100
 1.03, 0,     0,     400,     400,     400, 0, 0, 1.1, 0.9, 33, 0, 0, 0, 0
    1, 0
   209,    212, 0, 1, 1, 1, 1, 0, 0, 2, '            ', 1, 1, 1, 0, 1, 0, 1, 0, 1, '            '
0.002, 0.084, 100
 1.03, 0,     0,     400,     400,     400, 0, 0, 1.1, 0.9, 33, 0, 0, 0, 0
    1, 0
   210,    211, 0, 1, 1, 1, 1, 0, 0, 2, '            ', 1, 1, 1, 0, 1, 0, 1, 0, 1, '            '
0.002, 0.084, 100
1.015, 0,     0,     400,     400,     400, 0, 0, 1.1, 0.9, 33, 0, 0, 0, 0
    1, 0
   210,    212, 0, 1, 1, 1, 1, 0, 0, 2, '            ', 1, 1, 1, 0, 1, 0, 1, 0, 1, '            '
0.002, 0.084, 100
1.015, 0,     0,     400,     400,     400, 0, 0, 1.1, 0.9, 33, 0, 0, 0, 0
    1, 0
   303,    324, 0, 1, 1, 1, 1, 0, 0, 2, '            ', 1, 1, 1, 0, 1, 0, 1, 0, 1, '            '
0.002, 0.084, 100
1.015, 0,     0,     400,     400,     400, 0, 0, 1.1, 0.9, 33, 0, 0, 0, 0
    1, 0
   309,    311, 0, 1, 1, 1, 1, 0, 0, 2, '            ', 1, 1, 1, 0, 1, 0, 1, 0, 1, '            '
0.002, 0.084, 100
 1.03, 0,     0,     400,     400,     400, 0, 0, 1.1, 0.9, 33, 0, 0, 0, 0
    1, 0
   309,    312, 0, 1, 1, 1, 1, 0, 0, 2, '            ', 1, 1, 1, 0, 1, 0, 1, 0, 1, '            '
0.002, 0.084, 100
 1.03, 0,     0,     400,     400,     400, 0, 0, 1.1, 0.9, 33, 0, 0, 0, 0
    1, 0
   310,    311, 0, 1, 1, 1, 1, 0, 0, 2, '            ', 1, 1, 1, 0, 1, 0, 1, 0, 1, '            '
0.002, 0.084, 100
1.015, 0,     0,     400,     400,     400, 0, 0, 1.1, 0.9, 33, 0, 0, 0, 0
    1, 0
   310,    312, 0, 1, 1, 1, 1, 0, 0, 2, '            ', 1, 1, 1, 0, 1, 0, 1, 0, 1, '            '
0.002, 0.084, 100
1.015, 0,     0,     400,     400,     400, 0, 0, 1.1, 0.9, 33, 0, 0, 0, 0
    1, 0
   323,    325, 0, 1, 1, 1, 1, 0, 0, 2, '            ', 1, 1, 1, 0, 1, 0, 1, 0, 1, '            '
0, 0.009, 100
    1, 0,     0,     722,     722,     722, 0, 0, 1.1, 0.9, 33, 0, 0, 0, 0
    1, 0
0 / END OF TRANSFORMER DATA, BEGIN AREA DATA
0 / END OF AREA DATA, BEGIN TWO-TERMINAL DC DATA
'DCLINE 1    ', 1, 0.0,         0, 500, 0.0, 0.0, 0.0, I, 0.0, 20, 1.0
   113, 1, 25.0, 15.0, 0, 0,      230, 1.0, 1.0, 1.5, 0.51, 0.00625, 0, 0, 0, '1', 0.0
   316, 1, 25.0, 15.0, 0, 0,      230, 1.0, 1.0, 1.5, 0.51, 0.00625, 0, 0, 0, '1', 0.0
0 / END OF TWO-TERMINAL DC DATA, BEGIN VOLTAGE SOURCE CONVERTER DATA
0 / END OF VOLTAGE SOURCE CONVERTER DATA, BEGIN IMPEDANCE CORRECTION DATA
0 / END OF IMPEDANCE CORRECTION DATA, BEGIN MULTI-TERMINAL DC DATA
0 / END OF MULTI-TERMINAL DC DATA, BEGIN MULTI-SECTION LINE DATA
0 / END OF MULTI-SECTION LINE DATA, BEGIN ZONE DATA
0 / END OF ZONE DATA, BEGIN INTER-AREA TRANSFER DATA
0 / END OF INTER-AREA TRANSFER DATA, BEGIN OWNER DATA
0 / END OF OWNER DATA, BEGIN FACTS CONTROL DEVICE DATA
0 / END OF FACTS CONTROL DEVICE DATA, BEGIN SWITCHED SHUNT DATA
0 / END OF SWITCHED SHUNT DATA, BEGIN GNE DEVICE DATA
0 / END OF GNE DEVICE DATA, BEGIN INDUCTION MACHINE DATA
0 / END OF INDUCTION MACHINE DATA
Q
